Version 4
SHEET 1 880 680
WIRE 48 112 48 80
WIRE 128 112 48 112
WIRE -96 128 -96 96
WIRE 48 144 48 112
WIRE 128 144 128 112
WIRE 160 144 128 144
WIRE 208 144 160 144
WIRE -512 160 -560 160
WIRE 256 208 256 160
WIRE 256 208 224 208
WIRE 384 208 256 208
WIRE -272 224 -352 224
WIRE 256 224 256 208
WIRE -352 240 -352 224
WIRE 384 240 384 208
WIRE -512 256 -512 160
WIRE -368 256 -512 256
WIRE -144 272 -304 272
WIRE -128 272 -144 272
WIRE -16 272 -48 272
WIRE 224 272 224 208
WIRE 224 272 160 272
WIRE -368 288 -416 288
WIRE -272 304 -272 224
WIRE -272 304 -320 304
WIRE 256 320 256 304
WIRE 256 320 224 320
WIRE 384 320 256 320
WIRE 256 336 256 320
WIRE -48 384 -80 384
WIRE 112 384 32 384
WIRE 112 416 112 384
WIRE 160 416 160 400
WIRE 160 416 112 416
WIRE 112 432 32 432
WIRE 112 448 112 432
WIRE 160 464 160 416
WIRE 160 464 128 464
WIRE -416 480 -416 288
WIRE -80 480 -80 384
WIRE -80 480 -416 480
WIRE 64 480 -80 480
WIRE 224 496 224 320
WIRE 224 496 128 496
WIRE 32 512 32 432
WIRE 80 512 32 512
FLAG 48 -80 0
FLAG 48 320 0
FLAG -352 -64 0
FLAG -352 304 0
FLAG -640 160 0
FLAG 256 416 0
FLAG -352 16 10V
FLAG -352 224 10V
FLAG 112 512 0
FLAG 112 432 10V
FLAG 160 320 0
FLAG 256 -16 0
FLAG -192 128 0
FLAG -96 -192 0
FLAG -128 -144 0
FLAG -128 -64 3.3V
FLAG -96 16 3.3V
SYMBOL nmos 208 64 R0
SYMATTR InstName M1
SYMATTR Value BSC100N10NSF
SYMBOL voltage 256 80 R180
WINDOW 0 24 96 Left 2
WINDOW 3 24 16 Left 2
WINDOW 123 0 0 Left 0
WINDOW 39 24 68 Left 2
SYMATTR InstName V1
SYMATTR Value 24
SYMATTR SpiceLine Rser=1
SYMBOL voltage 48 16 R180
WINDOW 0 24 96 Left 2
WINDOW 3 24 16 Left 2
WINDOW 123 0 0 Left 0
WINDOW 39 0 0 Left 0
SYMATTR InstName V2
SYMATTR Value 30
SYMBOL res 32 -16 R0
SYMATTR InstName R2
SYMATTR Value 1Meg
SYMBOL res 32 128 R0
SYMATTR InstName R3
SYMATTR Value 100k
SYMBOL npn -16 224 R0
SYMATTR InstName Q1
SYMATTR Value 2N3904
SYMBOL res -32 256 R90
WINDOW 0 0 56 VBottom 2
WINDOW 3 32 56 VTop 2
SYMATTR InstName R4
SYMATTR Value 390k
SYMBOL OpAmps\\ADA4807-1 -336 272 R0
SYMATTR InstName U1
SYMBOL voltage -352 32 R180
WINDOW 0 24 96 Left 2
WINDOW 3 24 16 Left 2
WINDOW 123 0 0 Left 0
WINDOW 39 0 0 Left 0
SYMATTR InstName V3
SYMATTR Value 10
SYMBOL res 240 320 R0
SYMATTR InstName R7
SYMATTR Value 33m
SYMBOL OpAmps\\ADA4807-1 96 480 M0
SYMATTR InstName U2
SYMBOL res 144 304 R0
SYMATTR InstName R8
SYMATTR Value 15k
SYMBOL res 48 368 R90
WINDOW 0 0 56 VBottom 2
WINDOW 3 32 56 VTop 2
SYMATTR InstName R9
SYMATTR Value 390k
SYMBOL res 368 224 R0
SYMATTR InstName R10
SYMATTR Value 33k
SYMBOL voltage -544 160 R90
WINDOW 0 -32 56 VBottom 2
WINDOW 3 32 56 VTop 2
WINDOW 123 0 0 Left 0
WINDOW 39 0 0 Left 0
SYMATTR InstName V4
SYMATTR Value SINE(1 1 100)
SYMBOL zener 144 208 R0
WINDOW 3 -51 58 Left 2
SYMATTR InstName D1
SYMATTR Value MMBZ15VALY
SYMBOL zener 176 208 R180
WINDOW 0 24 64 Left 2
WINDOW 3 -186 23 Left 2
SYMATTR InstName D2
SYMATTR Value MMBZ15VALY
SYMBOL res 240 208 R0
SYMATTR InstName R1
SYMATTR Value 100
SYMBOL res -128 288 R180
WINDOW 0 36 76 Left 2
WINDOW 3 36 40 Left 2
SYMATTR InstName R5
SYMATTR Value 390k
SYMBOL npn -96 192 M270
SYMATTR InstName Q2
SYMATTR Value 2N3904
SYMBOL res -112 0 R0
SYMATTR InstName R6
SYMATTR Value 47k
SYMBOL voltage -96 -176 R180
WINDOW 0 24 96 Left 2
WINDOW 3 24 16 Left 2
WINDOW 123 0 0 Left 0
WINDOW 39 0 0 Left 0
SYMATTR InstName V5
SYMATTR Value 3.3
SYMBOL voltage -128 -48 R180
WINDOW 0 24 96 Left 2
WINDOW 3 24 16 Left 2
WINDOW 123 0 0 Left 0
WINDOW 39 0 0 Left 0
SYMATTR InstName V6
SYMATTR Value 3.3
SYMBOL cap 144 80 R0
SYMATTR InstName C1
TEXT -64 568 Left 2 ;Current sense amplifier
TEXT -392 360 Left 2 ;Indirect gate driver
TEXT -660 588 Left 2 !.tran 100m
