Version 4
SHEET 1 880 724
WIRE 48 112 48 80
WIRE 128 112 48 112
WIRE -96 128 -96 96
WIRE -352 144 -400 144
WIRE -240 144 -288 144
WIRE 48 144 48 112
WIRE 128 144 128 112
WIRE 160 144 128 144
WIRE 336 144 160 144
WIRE 432 144 336 144
WIRE -512 160 -560 160
WIRE 336 160 336 144
WIRE 480 208 480 160
WIRE 480 208 448 208
WIRE 608 208 480 208
WIRE 768 208 608 208
WIRE -272 224 -352 224
WIRE 480 224 480 208
WIRE -352 240 -352 224
WIRE 608 240 608 208
WIRE -512 256 -512 240
WIRE -400 256 -400 144
WIRE -400 256 -512 256
WIRE -368 256 -400 256
WIRE -240 272 -240 144
WIRE -240 272 -304 272
WIRE -144 272 -240 272
WIRE -128 272 -144 272
WIRE -16 272 -48 272
WIRE 336 272 336 224
WIRE 336 272 160 272
WIRE 448 272 448 208
WIRE 448 272 336 272
WIRE -368 288 -416 288
WIRE -272 304 -272 224
WIRE -272 304 -320 304
WIRE 480 320 480 304
WIRE 480 320 448 320
WIRE 544 320 480 320
WIRE 608 320 544 320
WIRE 480 336 480 320
WIRE -48 384 -80 384
WIRE 112 384 32 384
WIRE 112 416 112 384
WIRE 160 416 160 400
WIRE 160 416 112 416
WIRE 112 432 32 432
WIRE 112 448 112 432
WIRE 160 464 160 416
WIRE 160 464 128 464
WIRE 768 464 768 208
WIRE 768 464 624 464
WIRE -416 480 -416 288
WIRE -80 480 -80 384
WIRE -80 480 -416 480
WIRE 64 480 -80 480
WIRE 448 496 448 320
WIRE 448 496 128 496
WIRE 32 512 32 432
WIRE 80 512 32 512
WIRE 576 624 464 624
WIRE 544 640 544 320
WIRE 624 640 544 640
FLAG 48 -80 0
FLAG 48 320 0
FLAG -352 -64 0
FLAG -352 304 0
FLAG -640 160 0
FLAG 480 416 0
FLAG -352 16 10V
FLAG -352 224 10V
FLAG 112 512 0
FLAG 112 432 10V
FLAG 160 320 0
FLAG 480 -16 0
FLAG -192 128 0
FLAG -128 -144 0
FLAG -128 -64 3.3V
FLAG -96 16 3.3V
FLAG 464 704 0
SYMBOL nmos 432 64 R0
SYMATTR InstName M1
SYMATTR Value BSC100N10NSF
SYMBOL voltage 480 80 R180
WINDOW 0 24 96 Left 2
WINDOW 3 24 16 Left 2
WINDOW 123 0 0 Left 0
WINDOW 39 24 68 Left 2
SYMATTR InstName V1
SYMATTR Value 24
SYMATTR SpiceLine Rser=0.1
SYMBOL voltage 48 16 R180
WINDOW 0 24 96 Left 2
WINDOW 3 24 16 Left 2
WINDOW 123 0 0 Left 0
WINDOW 39 0 0 Left 0
SYMATTR InstName V2
SYMATTR Value 30
SYMBOL res 32 -16 R0
SYMATTR InstName R2
SYMATTR Value 1Meg
SYMBOL res 32 128 R0
SYMATTR InstName R3
SYMATTR Value 33k
SYMBOL npn -16 224 R0
SYMATTR InstName Q1
SYMATTR Value 2N3904
SYMBOL res -32 256 R90
WINDOW 0 0 56 VBottom 2
WINDOW 3 32 56 VTop 2
SYMATTR InstName R4
SYMATTR Value 1Meg
SYMBOL OpAmps\\ADA4807-1 -336 272 R0
SYMATTR InstName U1
SYMBOL voltage -352 32 R180
WINDOW 0 24 96 Left 2
WINDOW 3 24 16 Left 2
WINDOW 123 0 0 Left 0
WINDOW 39 0 0 Left 0
SYMATTR InstName V3
SYMATTR Value 10
SYMBOL res 464 320 R0
SYMATTR InstName R7
SYMATTR Value 33m
SYMBOL OpAmps\\ADA4807-1 96 480 M0
SYMATTR InstName U2
SYMBOL res 144 304 R0
SYMATTR InstName R8
SYMATTR Value 15k
SYMBOL res 48 368 R90
WINDOW 0 0 56 VBottom 2
WINDOW 3 32 56 VTop 2
SYMATTR InstName R9
SYMATTR Value 390k
SYMBOL res 592 224 R0
SYMATTR InstName R10
SYMATTR Value 33k
SYMBOL voltage -544 160 R90
WINDOW 0 -32 56 VBottom 2
WINDOW 3 32 56 VTop 2
WINDOW 123 0 0 Left 0
WINDOW 39 0 0 Left 0
SYMATTR InstName V4
SYMATTR Value 2.0
SYMBOL zener 144 208 R0
WINDOW 3 -51 58 Left 2
SYMATTR Value MMBZ15VALY
SYMATTR InstName D1
SYMBOL zener 176 208 R180
WINDOW 0 24 64 Left 2
WINDOW 3 -124 82 Left 2
SYMATTR InstName D2
SYMATTR Value MMBZ15VALY
SYMBOL res 464 208 R0
SYMATTR InstName R1
SYMATTR Value 100
SYMBOL res -128 288 R180
WINDOW 0 36 76 Left 2
WINDOW 3 36 40 Left 2
SYMATTR InstName R5
SYMATTR Value 100k
SYMBOL npn -96 192 M270
SYMATTR InstName Q2
SYMATTR Value 2N3904
SYMBOL res -112 0 R0
SYMATTR InstName R6
SYMATTR Value 47k
SYMBOL voltage -128 -48 R180
WINDOW 0 24 96 Left 2
WINDOW 3 24 16 Left 2
WINDOW 123 0 0 Left 0
WINDOW 39 0 0 Left 0
SYMATTR InstName V6
SYMATTR Value 3.3
SYMBOL cap 320 160 R0
SYMATTR InstName C1
SYMATTR Value 2.5n
SYMBOL res -528 144 R0
SYMATTR InstName R11
SYMATTR Value 390k
SYMBOL cap -288 128 R90
WINDOW 0 0 32 VBottom 2
WINDOW 3 32 32 VTop 2
SYMATTR InstName C3
SYMATTR Value 100n
SYMATTR SpiceLine V=16 Irms=0 Rser=0 Lser=0
SYMBOL nmos 576 544 R0
SYMATTR InstName M2
SYMATTR Value BSC100N10NSF
SYMBOL res 608 448 R0
SYMATTR InstName R12
SYMATTR Value 0.01
SYMBOL voltage 464 608 R0
WINDOW 123 0 0 Left 0
WINDOW 39 0 0 Left 0
SYMATTR InstName V7
SYMATTR Value PULSE(0 10 50m 1n 1n 10m)
TEXT -64 568 Left 2 ;Current sense amplifier
TEXT -392 360 Left 2 ;Indirect gate driver
TEXT -664 592 Left 2 !.tran 0 100m 0 startup
TEXT 224 592 Left 2 ;Late short circuit simulator
